280

Si 14.0537026701 4.2209105819 5.2310942808
Si 2.1596534786 8.8642766263 1.4436433161
Si 4.571897956 12.1062979475 0.9153439775
Si 6.1606354638 0.9605023928 6.7629653295
Si 4.3722327887 10.4929009119 5.7617956827
Si 1.6217647092 7.0166851355 6.8330426335
Si 7.9937576216 2.0212754001 14.3995751834
Si 6.4550790454 14.9359279546 12.179645743
Si 10.8245336704 14.8093737658 8.369363899
Si 1.6325985585 9.3549033194 11.1221875746
Si 10.5860759396 7.1973282236 7.4186033399
Si 6.2496978532 8.4097586631 12.9564467769
Si 4.7785247443 5.6685596431 9.4037182322
Si 14.0992866674 14.1490629944 1.8756202263
Si 10.1542594121 4.778559986 9.4201009817
Si 9.9793186693 13.1181531854 3.0016590983
Si 1.5703477826 14.3197136295 8.1442689452
Si 4.2609199493 12.134930338 3.5532438032
Si 4.4572386573 4.599663048 3.2872276827
Si 13.0653099373 10.0823131193 14.1160830191
Si 9.1564685914 11.8666671314 1.1721134079
Si 13.1406236878 6.953218337 5.884336159
Si 11.8129279726 8.5397699615 3.7595355478
Si 0.3223959705 1.4570621155 9.4535941296
Si 7.1116732353 10.9469863546 6.8416588556
Si 12.3380984831 9.5732497546 6.7787317421
Si 8.734333278 14.0231291302 13.7164775038
Si 6.339633747 8.2508009497 9.9668484978
Si 3.2279274843 2.4503646178 11.2187064481
Si 6.7618393451 5.9579222039 11.6217094396
Si 8.5273641651 9.795810833 11.3624667122
Si 4.0596955766 6.7887493309 2.3038865006
Si 8.9145576859 0.7365519568 3.8229711563
Si 3.6087884975 14.6065936438 5.4490424606
Si 6.85342931 13.4874771806 2.5528789348
Si 14.4252907863 11.7527396969 11.6145572892
Si 13.8609510179 9.5313770641 9.5631231526
Si 2.7802376921 3.4850449662 1.1600264907
Si 10.9265995471 9.6598788495 9.3279985475
Si 6.1723667576 12.9607955169 5.4518078295
Si 4.4376271483 13.4447703669 10.3189634414
Si 6.8957410301 15.0294114802 9.5579265136
Si 4.6180747389 2.5342949359 5.0940650162
Si 3.0904579279 6.2072543011 14.3723332171
Si 4.3995347927 3.1614866453 8.1283294793
Si 9.6092100329 6.0260676185 11.9453284676
Si 3.9327107401 1.2234305238 13.6666390915
Si 2.8155607047 12.0859004533 8.3701320056
Si 1.9503094752 12.5917713441 5.9194868058
Si 10.1235658709 4.3828406903 14.2830526733
Si 2.9299070484 9.6787060794 7.5952753122
Si 2.2271697424 4.1047717529 8.9372737221
Si 6.9228208741 7.0269908209 2.5636457763
Si 0.8141661138 5.814919799 0.7530476555
Si 13.0065083939 4.745626726 0.3175197827
Si 8.5323039402 9.4331788426 14.4174644023
Si 12.7436896669 3.4701056086 2.6670421154
Si 6.670605334 6.0725538109 4.9200537725
Si 8.5196967726 12.859898027 11.0759794451
Si 7.1282447947 2.0929467362 2.8559677561
Si 13.6122500509 6.3229633618 3.0230463393
Si 13.9712455319 1.228515775 4.2693369583
Si 6.7157457592 9.8185021059 1.2513972536
Si 9.4702887946 13.308294616 5.8771092009
Si 2.7899860528 4.7738723384 5.877181118
Si 9.1585813631 1.6063917921 6.526544789
Si 3.8058856556 13.3065046053 13.1835107733
Si 10.1887103825 3.2736403373 4.1901681116
Si 10.1396466178 1.86495551 12.4757618869
Si 13.3866392874 14.6919257015 7.0464782595
Si 10.5070062597 8.5194684754 13.3642223587
Si 4.7974583546 9.5083866432 2.7660590087
Si 12.5299621506 4.9186064368 7.8054356901
Si 13.7663623889 1.7776674317 0.2950468758
Si 8.846670282 7.4301326585 9.6690330057
Si 1.4479953464 2.4682331205 13.0728706349
Si 11.5472087685 12.1879624351 7.5910969965
Si 11.435429355 11.3063798848 4.5698172734
Si 8.9630692997 2.2284164837 9.5546780669
Si 1.5921816421 4.7858300988 3.3538136688
Si 13.0748618066 12.6034902135 13.9659016838
Si 6.0184234814 14.7092619782 14.823808265
Si 11.395979456 12.597712774 10.3372975923
Si 6.4433214174 11.1157201633 9.9383691565
Si 13.3001194843 2.284673099 11.9809814391
Si 10.7723974956 5.7051290173 2.6348403476
Si 14.3827962178 4.4538423805 10.225686122
Si 1.0056764892 8.5101842686 13.9343887052
Si 7.0004942609 3.7092448905 9.7210417499
Si 2.1938374074 13.5029264962 2.8861441123
Si 12.2055006058 5.0617885269 12.0199142402
Si 6.0170358425 5.8523036096 14.5634370609
Si 9.4612980838 6.5659512739 4.6248479212
Si 11.5870072318 1.0563511578 2.2465681224
Si 13.5799943878 14.0916022831 11.4197616717
Si 14.358174945 11.8729754832 7.39756527
Si 2.3311326647 5.2321606138 11.5956191987
Si 11.7221414505 0.4919684734 13.6778189451
Si 7.5962152619 13.1534431211 8.1193065887
Si 8.9014225321 6.4292496842 0.2943194697
Si 1.8471109632 14.3692546129 11.2748299208
Si 1.9845503895 0.5965010304 0.6639311817
Si 14.6021268283 7.0966500717 11.3571468287
Si 2.1198391953 1.6749676314 3.4971930995
Si 12.4065045847 11.7414383238 1.996377009
Si 12.0680538509 8.0804245184 11.6575064565
Si 3.9518564374 7.5563691905 11.7263507126
Si 2.7145310896 7.172786188 9.0628693356
Si 4.5038552469 7.3548284019 6.6893220126
Si 14.5935763992 6.6993119366 8.5664264381
Si 14.0382332527 13.0069248095 4.4684605422
Si 5.9776205868 3.2196393409 12.5951728781
Si 11.6886732561 2.7431757739 7.0575744028
Si 3.5007402804 10.1888719946 13.3293541822
Si 14.0468437965 9.1006653589 1.7115600276
Si 7.3262297169 3.1826446967 5.1538188967
Si 7.6135852802 7.9509680151 6.882453255
Si 4.0602319432 10.5104752782 10.4163365138
Si 5.6102969864 3.0520311219 0.7595630282
Si 10.2759023947 11.6753208156 13.1258566178
N 3.4286586384 2.7662335058 9.5357509844
N 9.4618265749 2.8166768387 13.9666300395
N 7.3036455675 6.3945814956 1.0009004821
N 9.5419576663 1.3298538165 8.1668233752
N 7.4933525983 2.0148200942 6.3763151542
N 11.1622120762 8.8091707273 7.8236818931
N 0.3251170355 10.4076006175 10.5959865672
N 2.0183753006 8.3295820159 7.859248582
N 7.3550536196 0.4216808654 3.1101165084
N 1.2249040932 4.5637240406 5.0789782633
N 11.8464414385 1.8962817158 12.6917384268
N 5.8673702639 12.751690173 3.7637507399
N 7.0271123167 1.8911608096 12.888322657
N 2.2141629374 1.2431921588 12.0831757342
N 9.1227060039 12.4362008904 14.1924556939
N 0.8561393719 8.26540216 12.2627628735
N 9.1725782827 14.9050037537 5.4224475437
N 6.0365729222 2.7540456328 4.0392479632
N 1.9455374789 3.2095544774 2.6337954513
N 10.7141437726 12.1552846002 1.8471081363
N 9.0605116652 5.5230068864 13.4794610475
N 13.5179639727 14.520703529 5.3302050252
N 8.5920686206 2.4877178291 3.8863714351
N 2.2072212278 3.638817489 12.0675311864
N 2.4043746766 14.1442566773 6.5798532886
N 2.2185894979 4.846332406 14.9611009353
N 8.137220306 13.7449460985 9.6448934312
N 0.4577140376 5.697773092 2.4497915614
N 14.4222299648 2.2898098755 13.371060167
N 14.1305898599 11.3441875791 13.2766825347
N 3.0719752335 5.6268027403 3.0170081764
N 10.0819893703 0.3026210493 13.3468449283
N 3.0414417834 13.1124475719 4.47669249
N 1.5590900316 5.9997209649 8.3888657097
N 0.919601986 9.3096839714 2.3690697321
N 9.4880220556 8.0360676032 14.646952417
N 12.8902289186 10.299949866 1.244956415
N 3.2049137119 5.3129266062 10.0808396101
N 0.7546727802 5.6357004545 11.0752385171
N 4.0526855956 4.1157410818 4.8893712652
N 4.5364036337 6.4408667305 0.6245423498
N 0.9239510123 1.2842153224 4.4827373384
N 4.2273552286 9.0721535518 6.6405254778
N 2.8561920724 8.1306180526 10.491550086
N 10.0354619149 6.4856468536 8.9004025546
N 13.0909087299 13.01482557 7.59906148
N 5.6343535902 4.3061909297 8.7936861629
N 7.2115872228 2.7379522473 1.2836470724
N 5.5112448023 6.1146877354 3.2517778337
N 9.2154615645 7.1316466007 6.2852334805
N 13.1502107679 7.9317243202 2.7301331924
N 11.1177123785 11.3622966211 9.0683810913
N 5.8181451722 13.3450436763 1.1470243321
N 7.6829474917 9.5170621544 6.4442572947
N 14.5544655465 7.0353080855 6.8510143252
N 5.4444335537 6.8242578746 10.6686618168
N 11.285434438 3.9200359393 8.3846260007
N 4.1211007153 11.764286288 13.9154598438
N 14.5925305293 7.9336852024 9.7613426818
N 11.1350829279 10.001266715 3.6435973329
N 13.7269524651 10.2071953263 7.8963580501
N 10.2090824421 14.8336598886 2.8402711943
N 12.42296367 5.1980394167 2.208166458
N 7.4229929252 7.7382759199 8.7146035027
N 10.3312378348 13.3833977368 7.3234922372
N 1.6989185074 0.4103421681 9.6975555689
N 5.0873246368 11.8890747354 10.6069680682
N 10.1561251298 12.5119978979 4.5771944466
N 12.0796467868 8.9850280286 13.1467814781
N 5.0724151372 1.4958156303 0.3379484414
N 3.026781576 6.5319910084 5.9552603386
N 3.6428403686 13.4051999932 8.841529512
N 14.7613257005 0.6619198965 7.9022900799
N 7.7817691347 11.2743994187 11.0058471049
N 4.2391166637 10.4853347357 4.0718222491
N 7.1927495154 8.7032755576 11.5255351652
N 5.6574633017 14.6797716026 10.6526230179
N 0.7158424777 3.2597779317 9.4513466271
N 6.3613055564 6.6696855186 13.1097833463
N 12.9222998745 14.0916995286 13.0758049764
N 13.145710507 0.6126415757 2.8482770224
N 13.4766784883 3.2520444833 1.1275719497
N 5.2805913712 10.6804577693 1.5651699421
N 1.796652377 7.2671720563 0.3609166761
N 4.9311999339 2.1638848656 6.8201423593
N 11.7215728234 11.0755446095 6.2617482995
N 7.2544821355 4.7174632009 5.5701200006
N 13.0283092902 12.5149393849 10.8745095542
N 6.8711331905 9.19489537 14.2890010081
N 4.5951801387 8.7879397574 12.7636341687
N 6.1162750897 7.1433224865 6.1246962866
N 7.8093369337 13.8850391666 12.2659325056
N 0.2785220175 0.5719069711 0.7781535305
N 4.4362323694 3.6557803236 1.8212361421
N 5.6169052153 11.5254303615 6.1711205202
N 5.465697521 9.6532646027 9.7751890686
N 13.2601451777 3.8669450154 11.3389755549
N 14.20340106 8.7863978323 14.6403612259
N 8.3583650714 10.3592156694 1.1657955516
N 10.3628038653 2.7193016603 5.8558167805
N 4.5279931128 2.3061600552 12.3420134843
N 0.493076816 13.3460930702 3.0716027096
N 13.8649847621 1.1146211939 10.8071105432
N 2.905350367 11.2249402965 6.60068032
N 5.2460350309 14.3638180547 13.2832410659
N 12.9979558386 6.6466237802 11.7169369186
N 13.5630534788 3.0324559235 4.1001557633
N 13.4768917677 5.8094814627 4.6594978938
N 1.1670565926 12.5497163151 8.1429248566
N 13.1362092949 3.7710871856 6.6557273907
N 11.2788411637 14.1412303473 9.7753276644
N 7.7984549674 12.6966285192 6.3074481834
N 12.763582404 12.1289646737 3.7017730401
N 3.0365037362 10.5563054544 9.0446261115
N 2.9832101762 14.3953675094 14.2221977833
N 11.9597022349 6.2884220986 6.9457536481
N 12.1533888065 1.0141925403 0.5809934097
N 3.3625905935 12.4007593181 2.1184861723
N 2.8806688843 10.4150033014 11.7322744723
N 3.2299385809 6.2816065984 12.6479117331
N 5.8222399772 4.1677980767 14.090217332
N 12.2939287452 9.1843915866 10.3251153941
N 6.3067820515 8.6534811777 2.4742397215
N 4.2965786405 6.8931392529 8.3357137174
N 10.6865408441 4.9600753932 11.1430348183
N 9.4205929242 9.973634456 12.9864724446
N 13.5906116937 5.4265896559 9.0289027363
N 6.5053530578 4.2956442382 11.3521492998
N 3.2809132228 13.4868350674 11.5899113768
N 12.0548539463 1.0882886268 7.4755507421
N 9.6500160466 1.954393665 10.9680623903
N 10.0879396091 4.9453425737 4.045824755
N 9.45549781 9.0709229767 10.0893831449
N 5.3478654762 14.4433407062 5.7422107964
N 9.9490320775 5.362890472 1.1445262525
N 8.6616498462 3.9461763465 9.2706755677
N 11.7623182174 4.6807549405 13.7359047449
N 14.1793406805 5.7186859198 14.4191700379
N 3.5893059497 8.4090596728 2.3277895673
N 10.4808962908 7.4833500638 12.052907412
N 7.7459647778 0.3230433986 14.7829860585
N 2.3641342407 9.5624096966 14.4237433868
N 10.1260154967 12.3397385876 11.5550263403
N 0.5222033773 13.3819150782 11.647871382
N 0.3188900189 12.1187575531 5.6852346276
N 10.6710201587 7.212500331 3.52196844
N 7.8896909747 6.779902161 3.9147511238
N 3.0566181177 4.028898335 7.4197864281
N 3.5384592631 1.3938842724 4.5317942436
N 11.736131483 11.5117079066 13.8618751078
N 8.3778039244 12.789702587 2.3738329652
N 12.5655374702 8.4745628115 5.4393253354
N 8.2735973001 6.3548431787 10.9267096164
N 2.5243417694 0.4282739346 2.2735520129
N 7.094412095 11.5697397783 8.4337040768
N 13.2574031331 12.9528213019 1.0168435506
N 7.205765395 2.0157345705 9.6454083709
N 11.2079427086 2.6815087003 2.8616266335
N 2.4663106321 2.1897601268 14.5916955915
N 6.6080011421 14.5501235141 7.9751977507
